# generated using pymatgen
data_RbLi2Be2F7
_symmetry_space_group_name_H-M   'P 1'
_cell_length_a   12.37600000
_cell_length_b   4.94800000
_cell_length_c   10.05400000
_cell_angle_alpha   90.00000000
_cell_angle_beta   90.25000000
_cell_angle_gamma   90.00000000
_symmetry_Int_Tables_number   1
_chemical_formula_structural   RbLi2Be2F7
_chemical_formula_sum   'Rb4 Li8 Be8 F28'
_cell_volume   615.66538745
_cell_formula_units_Z   4
loop_
 _symmetry_equiv_pos_site_id
 _symmetry_equiv_pos_as_xyz
  1  'x, y, z'
loop_
 _atom_type_symbol
 _atom_type_oxidation_number
  Rb+  1.0
  Li+  1.0
  Be2+  2.0
  F-  -1.0
loop_
 _atom_site_type_symbol
 _atom_site_label
 _atom_site_symmetry_multiplicity
 _atom_site_fract_x
 _atom_site_fract_y
 _atom_site_fract_z
 _atom_site_occupancy
  Rb+  Rb1  1  0.25000000  0.76830000  0.64060000  1.0
  Rb+  Rb1  1  0.75000000  0.26830000  0.85940000  1.0
  Rb+  Rb1  1  0.75000000  0.23170000  0.35940000  1.0
  Rb+  Rb1  1  0.25000000  0.73170000  0.14060000  1.0
  Li+  Li1  1  0.50130000  0.29190000  0.64950000  1.0
  Li+  Li1  1  0.49870000  0.79190000  0.85050000  1.0
  Li+  Li1  1  0.49870000  0.70810000  0.35050000  1.0
  Li+  Li1  1  0.50130000  0.20810000  0.14950000  1.0
  Li+  Li2  1  0.00110000  0.79120000  0.84730000  1.0
  Li+  Li2  1  0.99890000  0.29120000  0.65270000  1.0
  Li+  Li2  1  0.99890000  0.20880000  0.15270000  1.0
  Li+  Li2  1  0.00110000  0.70880000  0.34730000  1.0
  Be2+  Be1  1  0.36550000  0.27580000  0.89940000  1.0
  Be2+  Be1  1  0.63450000  0.77580000  0.60060000  1.0
  Be2+  Be1  1  0.63450000  0.72420000  0.10060000  1.0
  Be2+  Be1  1  0.36550000  0.22420000  0.39940000  1.0
  Be2+  Be2  1  0.13030000  0.28620000  0.90330000  1.0
  Be2+  Be2  1  0.86970000  0.78620000  0.59670000  1.0
  Be2+  Be2  1  0.86970000  0.71380000  0.09670000  1.0
  Be2+  Be2  1  0.13030000  0.21380000  0.40330000  1.0
  F-  F1  1  0.24800000  0.20120000  0.85090000  1.0
  F-  F1  1  0.75200000  0.70120000  0.64910000  1.0
  F-  F1  1  0.75200000  0.79880000  0.14910000  1.0
  F-  F1  1  0.24800000  0.29880000  0.35090000  1.0
  F-  F2  1  0.38240000  0.17700000  0.04110000  1.0
  F-  F2  1  0.61760000  0.67700000  0.45890000  1.0
  F-  F2  1  0.61760000  0.82300000  0.95890000  1.0
  F-  F2  1  0.38240000  0.32300000  0.54110000  1.0
  F-  F3  1  0.44530000  0.12830000  0.80370000  1.0
  F-  F3  1  0.55470000  0.62830000  0.69630000  1.0
  F-  F3  1  0.55470000  0.87170000  0.19630000  1.0
  F-  F3  1  0.44530000  0.37170000  0.30370000  1.0
  F-  F4  1  0.38050000  0.57980000  0.88890000  1.0
  F-  F4  1  0.61950000  0.07980000  0.61110000  1.0
  F-  F4  1  0.61950000  0.42020000  0.11110000  1.0
  F-  F4  1  0.38050000  0.92020000  0.38890000  1.0
  F-  F5  1  0.12110000  0.59410000  0.88860000  1.0
  F-  F5  1  0.87890000  0.09410000  0.61140000  1.0
  F-  F5  1  0.87890000  0.40590000  0.11140000  1.0
  F-  F5  1  0.12110000  0.90590000  0.38860000  1.0
  F-  F6  1  0.04820000  0.14260000  0.81200000  1.0
  F-  F6  1  0.95180000  0.64260000  0.68800000  1.0
  F-  F6  1  0.95180000  0.85740000  0.18800000  1.0
  F-  F6  1  0.04820000  0.35740000  0.31200000  1.0
  F-  F7  1  0.11970000  0.19680000  0.04710000  1.0
  F-  F7  1  0.88030000  0.69680000  0.45290000  1.0
  F-  F7  1  0.88030000  0.80320000  0.95290000  1.0
  F-  F7  1  0.11970000  0.30320000  0.54710000  1.0
