# generated using pymatgen
data_Cs2NaFeF6
_symmetry_space_group_name_H-M   'P 1'
_cell_length_a   6.26700000
_cell_length_b   6.26700000
_cell_length_c   30.48000000
_cell_angle_alpha   90.00000000
_cell_angle_beta   90.00000000
_cell_angle_gamma   120.00000000
_symmetry_Int_Tables_number   1
_chemical_formula_structural   Cs2NaFeF6
_chemical_formula_sum   'Cs12 Na6 Fe6 F36'
_cell_volume   1036.72837150
_cell_formula_units_Z   6
loop_
 _symmetry_equiv_pos_site_id
 _symmetry_equiv_pos_as_xyz
  1  'x, y, z'
loop_
 _atom_type_symbol
 _atom_type_oxidation_number
  Cs+  1.0
  Na+  1.0
  Fe3+  3.0
  F-  -1.0
loop_
 _atom_site_type_symbol
 _atom_site_label
 _atom_site_symmetry_multiplicity
 _atom_site_fract_x
 _atom_site_fract_y
 _atom_site_fract_z
 _atom_site_occupancy
  Cs+  Cs1  1  0.00000000  0.00000000  0.87223000  1.0
  Cs+  Cs1  1  0.00000000  0.00000000  0.12777000  1.0
  Cs+  Cs1  1  0.66666667  0.33333333  0.20556333  1.0
  Cs+  Cs1  1  0.33333333  0.66666667  0.53889667  1.0
  Cs+  Cs1  1  0.66666667  0.33333333  0.46110333  1.0
  Cs+  Cs1  1  0.33333333  0.66666667  0.79443667  1.0
  Cs+  Cs2  1  0.00000000  0.00000000  0.71874000  1.0
  Cs+  Cs2  1  0.00000000  0.00000000  0.28126000  1.0
  Cs+  Cs2  1  0.66666667  0.33333333  0.05207333  1.0
  Cs+  Cs2  1  0.33333333  0.66666667  0.38540667  1.0
  Cs+  Cs2  1  0.66666667  0.33333333  0.61459333  1.0
  Cs+  Cs2  1  0.33333333  0.66666667  0.94792667  1.0
  Na+  Na1  1  0.00000000  0.00000000  0.59760000  1.0
  Na+  Na1  1  0.00000000  0.00000000  0.40240000  1.0
  Na+  Na1  1  0.66666667  0.33333333  0.93093333  1.0
  Na+  Na1  1  0.33333333  0.66666667  0.26426667  1.0
  Na+  Na1  1  0.66666667  0.33333333  0.73573333  1.0
  Na+  Na1  1  0.33333333  0.66666667  0.06906667  1.0
  Fe3+  Fe1  1  0.00000000  0.00000000  0.00000000  1.0
  Fe3+  Fe1  1  0.66666667  0.33333333  0.33333333  1.0
  Fe3+  Fe1  1  0.33333333  0.66666667  0.66666667  1.0
  Fe3+  Fe2  1  0.00000000  0.00000000  0.50000000  1.0
  Fe3+  Fe2  1  0.66666667  0.33333333  0.83333333  1.0
  Fe3+  Fe2  1  0.33333333  0.66666667  0.16666667  1.0
  F-  F1  1  0.28248000  0.14124000  0.53802000  1.0
  F-  F1  1  0.85876000  0.71752000  0.53802000  1.0
  F-  F1  1  0.85876000  0.14124000  0.53802000  1.0
  F-  F1  1  0.71752000  0.85876000  0.46198000  1.0
  F-  F1  1  0.14124000  0.28248000  0.46198000  1.0
  F-  F1  1  0.14124000  0.85876000  0.46198000  1.0
  F-  F1  1  0.94914667  0.47457333  0.87135333  1.0
  F-  F1  1  0.61581333  0.80790667  0.20468667  1.0
  F-  F1  1  0.52542667  0.05085333  0.87135333  1.0
  F-  F1  1  0.19209333  0.38418667  0.20468667  1.0
  F-  F1  1  0.52542667  0.47457333  0.87135333  1.0
  F-  F1  1  0.19209333  0.80790667  0.20468667  1.0
  F-  F1  1  0.38418667  0.19209333  0.79531333  1.0
  F-  F1  1  0.05085333  0.52542667  0.12864667  1.0
  F-  F1  1  0.80790667  0.61581333  0.79531333  1.0
  F-  F1  1  0.47457333  0.94914667  0.12864667  1.0
  F-  F1  1  0.80790667  0.19209333  0.79531333  1.0
  F-  F1  1  0.47457333  0.52542667  0.12864667  1.0
  F-  F2  1  0.37368000  0.18684000  0.36923000  1.0
  F-  F2  1  0.81316000  0.62632000  0.36923000  1.0
  F-  F2  1  0.81316000  0.18684000  0.36923000  1.0
  F-  F2  1  0.62632000  0.81316000  0.63077000  1.0
  F-  F2  1  0.18684000  0.37368000  0.63077000  1.0
  F-  F2  1  0.18684000  0.81316000  0.63077000  1.0
  F-  F2  1  0.04034667  0.52017333  0.70256333  1.0
  F-  F2  1  0.70701333  0.85350667  0.03589667  1.0
  F-  F2  1  0.47982667  0.95965333  0.70256333  1.0
  F-  F2  1  0.14649333  0.29298667  0.03589667  1.0
  F-  F2  1  0.47982667  0.52017333  0.70256333  1.0
  F-  F2  1  0.14649333  0.85350667  0.03589667  1.0
  F-  F2  1  0.29298667  0.14649333  0.96410333  1.0
  F-  F2  1  0.95965333  0.47982667  0.29743667  1.0
  F-  F2  1  0.85350667  0.70701333  0.96410333  1.0
  F-  F2  1  0.52017333  0.04034667  0.29743667  1.0
  F-  F2  1  0.85350667  0.14649333  0.96410333  1.0
  F-  F2  1  0.52017333  0.47982667  0.29743667  1.0
