# generated using pymatgen
data_KTcO4
_symmetry_space_group_name_H-M   'P 1'
_cell_length_a   5.63000000
_cell_length_b   5.63000000
_cell_length_c   12.86700000
_cell_angle_alpha   90.00000000
_cell_angle_beta   90.00000000
_cell_angle_gamma   90.00000000
_symmetry_Int_Tables_number   1
_chemical_formula_structural   KTcO4
_chemical_formula_sum   'K4 Tc4 O16'
_cell_volume   407.84401230
_cell_formula_units_Z   4
loop_
 _symmetry_equiv_pos_site_id
 _symmetry_equiv_pos_as_xyz
  1  'x, y, z'
loop_
 _atom_type_symbol
 _atom_type_oxidation_number
  K+  1.0
  Tc7+  7.0
  O2-  -2.0
loop_
 _atom_site_type_symbol
 _atom_site_label
 _atom_site_symmetry_multiplicity
 _atom_site_fract_x
 _atom_site_fract_y
 _atom_site_fract_z
 _atom_site_occupancy
  K+  K1  1  0.50000000  0.75000000  0.12500000  1.0
  K+  K1  1  0.00000000  0.75000000  0.37500000  1.0
  K+  K1  1  0.50000000  0.25000000  0.87500000  1.0
  K+  K1  1  0.00000000  0.25000000  0.62500000  1.0
  Tc7+  Tc1  1  0.50000000  0.75000000  0.62500000  1.0
  Tc7+  Tc1  1  0.00000000  0.75000000  0.87500000  1.0
  Tc7+  Tc1  1  0.50000000  0.25000000  0.37500000  1.0
  Tc7+  Tc1  1  0.00000000  0.25000000  0.12500000  1.0
  O2-  O1  1  0.72460000  0.85890000  0.54920000  1.0
  O2-  O1  1  0.27540000  0.64110000  0.54920000  1.0
  O2-  O1  1  0.10890000  0.52540000  0.79920000  1.0
  O2-  O1  1  0.89110000  0.97460000  0.79920000  1.0
  O2-  O1  1  0.27540000  0.14110000  0.45080000  1.0
  O2-  O1  1  0.72460000  0.35890000  0.45080000  1.0
  O2-  O1  1  0.89110000  0.47460000  0.20080000  1.0
  O2-  O1  1  0.10890000  0.02540000  0.20080000  1.0
  O2-  O1  1  0.22460000  0.35890000  0.04920000  1.0
  O2-  O1  1  0.77540000  0.14110000  0.04920000  1.0
  O2-  O1  1  0.60890000  0.02540000  0.29920000  1.0
  O2-  O1  1  0.39110000  0.47460000  0.29920000  1.0
  O2-  O1  1  0.77540000  0.64110000  0.95080000  1.0
  O2-  O1  1  0.22460000  0.85890000  0.95080000  1.0
  O2-  O1  1  0.39110000  0.97460000  0.70080000  1.0
  O2-  O1  1  0.60890000  0.52540000  0.70080000  1.0
