# generated using pymatgen
data_KPO3
_symmetry_space_group_name_H-M   'P 1'
_cell_length_a   11.07400000
_cell_length_b   11.96500000
_cell_length_c   7.35000000
_cell_angle_alpha   90.00000000
_cell_angle_beta   102.18000000
_cell_angle_gamma   90.00000000
_symmetry_Int_Tables_number   1
_chemical_formula_structural   KPO3
_chemical_formula_sum   'K12 P12 O36'
_cell_volume   951.95563085
_cell_formula_units_Z   12
loop_
 _symmetry_equiv_pos_site_id
 _symmetry_equiv_pos_as_xyz
  1  'x, y, z'
loop_
 _atom_type_symbol
 _atom_type_oxidation_number
  K+  1.0
  P5+  5.0
  O2-  -2.0
loop_
 _atom_site_type_symbol
 _atom_site_label
 _atom_site_symmetry_multiplicity
 _atom_site_fract_x
 _atom_site_fract_y
 _atom_site_fract_z
 _atom_site_occupancy
  K+  K1  1  0.09980000  0.25690000  0.40280000  1.0
  K+  K1  1  0.59980000  0.24310000  0.90280000  1.0
  K+  K1  1  0.90020000  0.74310000  0.59720000  1.0
  K+  K1  1  0.40020000  0.75690000  0.09720000  1.0
  K+  K2  1  0.12170000  0.91830000  0.35310000  1.0
  K+  K2  1  0.62170000  0.58170000  0.85310000  1.0
  K+  K2  1  0.87830000  0.08170000  0.64690000  1.0
  K+  K2  1  0.37830000  0.41830000  0.14690000  1.0
  K+  K3  1  0.41940000  0.14180000  0.34140000  1.0
  K+  K3  1  0.91940000  0.35820000  0.84140000  1.0
  K+  K3  1  0.58060000  0.85820000  0.65860000  1.0
  K+  K3  1  0.08060000  0.64180000  0.15860000  1.0
  P5+  P1  1  0.33590000  0.05470000  0.72850000  1.0
  P5+  P1  1  0.83590000  0.44530000  0.22850000  1.0
  P5+  P1  1  0.66410000  0.94530000  0.27150000  1.0
  P5+  P1  1  0.16410000  0.55470000  0.77150000  1.0
  P5+  P2  1  0.15370000  0.92930000  0.87300000  1.0
  P5+  P2  1  0.65370000  0.57070000  0.37300000  1.0
  P5+  P2  1  0.84630000  0.07070000  0.12700000  1.0
  P5+  P2  1  0.34630000  0.42930000  0.62700000  1.0
  P5+  P3  1  0.17540000  0.17190000  0.92430000  1.0
  P5+  P3  1  0.67540000  0.32810000  0.42430000  1.0
  P5+  P3  1  0.82460000  0.82810000  0.07570000  1.0
  P5+  P3  1  0.32460000  0.67190000  0.57570000  1.0
  O2-  O1  1  0.28910000  0.94490000  0.82380000  1.0
  O2-  O1  1  0.78910000  0.55510000  0.32380000  1.0
  O2-  O1  1  0.71090000  0.05510000  0.17620000  1.0
  O2-  O1  1  0.21090000  0.44490000  0.67620000  1.0
  O2-  O2  1  0.30760000  0.15230000  0.86630000  1.0
  O2-  O2  1  0.80760000  0.34770000  0.36630000  1.0
  O2-  O2  1  0.69240000  0.84770000  0.13370000  1.0
  O2-  O2  1  0.19240000  0.65230000  0.63370000  1.0
  O2-  O3  1  0.14270000  0.04600000  0.97940000  1.0
  O2-  O3  1  0.64270000  0.45400000  0.47940000  1.0
  O2-  O3  1  0.85730000  0.95400000  0.02060000  1.0
  O2-  O3  1  0.35730000  0.54600000  0.52060000  1.0
  O2-  O4  1  0.25850000  0.07170000  0.54180000  1.0
  O2-  O4  1  0.75850000  0.42830000  0.04180000  1.0
  O2-  O4  1  0.74150000  0.92830000  0.45820000  1.0
  O2-  O4  1  0.24150000  0.57170000  0.95820000  1.0
  O2-  O5  1  0.47200000  0.04820000  0.75010000  1.0
  O2-  O5  1  0.97200000  0.45180000  0.25010000  1.0
  O2-  O5  1  0.52800000  0.95180000  0.24990000  1.0
  O2-  O5  1  0.02800000  0.54820000  0.74990000  1.0
  O2-  O6  1  0.16430000  0.84000000  0.01310000  1.0
  O2-  O6  1  0.66430000  0.66000000  0.51310000  1.0
  O2-  O6  1  0.83570000  0.16000000  0.98690000  1.0
  O2-  O6  1  0.33570000  0.34000000  0.48690000  1.0
  O2-  O7  1  0.05750000  0.92250000  0.69940000  1.0
  O2-  O7  1  0.55750000  0.57750000  0.19940000  1.0
  O2-  O7  1  0.94250000  0.07750000  0.30060000  1.0
  O2-  O7  1  0.44250000  0.42250000  0.80060000  1.0
  O2-  O8  1  0.20220000  0.23880000  0.09600000  1.0
  O2-  O8  1  0.70220000  0.26120000  0.59600000  1.0
  O2-  O8  1  0.79780000  0.76120000  0.90400000  1.0
  O2-  O8  1  0.29780000  0.73880000  0.40400000  1.0
  O2-  O9  1  0.08120000  0.21030000  0.76120000  1.0
  O2-  O9  1  0.58120000  0.28970000  0.26120000  1.0
  O2-  O9  1  0.91880000  0.78970000  0.23880000  1.0
  O2-  O9  1  0.41880000  0.71030000  0.73880000  1.0
