# generated using pymatgen
data_NaClO2
_symmetry_space_group_name_H-M   'P 1'
_cell_length_a   6.45600000
_cell_length_b   6.44200000
_cell_length_c   6.81300000
_cell_angle_alpha   90.00000000
_cell_angle_beta   120.60000000
_cell_angle_gamma   90.00000000
_symmetry_Int_Tables_number   1
_chemical_formula_structural   NaClO2
_chemical_formula_sum   'Na4 Cl4 O8'
_cell_volume   243.89092436
_cell_formula_units_Z   4
loop_
 _symmetry_equiv_pos_site_id
 _symmetry_equiv_pos_as_xyz
  1  'x, y, z'
loop_
 _atom_type_symbol
 _atom_type_oxidation_number
  Na+  1.0
  Cl3+  3.0
  O2-  -2.0
loop_
 _atom_site_type_symbol
 _atom_site_label
 _atom_site_symmetry_multiplicity
 _atom_site_fract_x
 _atom_site_fract_y
 _atom_site_fract_z
 _atom_site_occupancy
  Na+  Na1  1  0.25000000  0.63380000  1.00000000  1.0
  Na+  Na1  1  0.75000000  0.36620000  1.00000000  1.0
  Na+  Na1  1  0.75000000  0.13380000  0.50000000  1.0
  Na+  Na1  1  0.25000000  0.86620000  0.50000000  1.0
  Cl3+  Cl1  1  0.75000000  0.84930000  0.00000000  1.0
  Cl3+  Cl1  1  0.25000000  0.15070000  0.00000000  1.0
  Cl3+  Cl1  1  0.25000000  0.34930000  0.50000000  1.0
  Cl3+  Cl1  1  0.75000000  0.65070000  0.50000000  1.0
  O2-  O1  1  0.97660000  0.70770000  0.13410000  1.0
  O2-  O1  1  0.52340000  0.70770000  0.86590000  1.0
  O2-  O1  1  0.02340000  0.29230000  0.86590000  1.0
  O2-  O1  1  0.47660000  0.29230000  0.13410000  1.0
  O2-  O1  1  0.47660000  0.20770000  0.63410000  1.0
  O2-  O1  1  0.02340000  0.20770000  0.36590000  1.0
  O2-  O1  1  0.52340000  0.79230000  0.36590000  1.0
  O2-  O1  1  0.97660000  0.79230000  0.63410000  1.0
