# generated using pymatgen
data_Tl2CuPb(NO2)6
_symmetry_space_group_name_H-M   'P 1'
_cell_length_a   10.73440000
_cell_length_b   10.73440000
_cell_length_c   10.73440000
_cell_angle_alpha   90.00000000
_cell_angle_beta   90.00000000
_cell_angle_gamma   90.00000000
_symmetry_Int_Tables_number   1
_chemical_formula_structural   Tl2CuPb(NO2)6
_chemical_formula_sum   'Tl8 Cu4 Pb4 N24 O48'
_cell_volume   1236.89639456
_cell_formula_units_Z   4
loop_
 _symmetry_equiv_pos_site_id
 _symmetry_equiv_pos_as_xyz
  1  'x, y, z'
loop_
 _atom_type_symbol
 _atom_type_oxidation_number
  Tl+  1.0
  Cu2+  2.0
  Pb2+  2.0
  N3+  3.0
  O2-  -2.0
loop_
 _atom_site_type_symbol
 _atom_site_label
 _atom_site_symmetry_multiplicity
 _atom_site_fract_x
 _atom_site_fract_y
 _atom_site_fract_z
 _atom_site_occupancy
  Tl+  Tl1  1  0.25000000  0.25000000  0.75000000  1.0
  Tl+  Tl1  1  0.75000000  0.75000000  0.25000000  1.0
  Tl+  Tl1  1  0.25000000  0.75000000  0.25000000  1.0
  Tl+  Tl1  1  0.75000000  0.25000000  0.75000000  1.0
  Tl+  Tl1  1  0.75000000  0.25000000  0.25000000  1.0
  Tl+  Tl1  1  0.25000000  0.75000000  0.75000000  1.0
  Tl+  Tl1  1  0.75000000  0.75000000  0.75000000  1.0
  Tl+  Tl1  1  0.25000000  0.25000000  0.25000000  1.0
  Cu2+  Cu1  1  0.00000000  0.00000000  0.00000000  1.0
  Cu2+  Cu1  1  0.00000000  0.50000000  0.50000000  1.0
  Cu2+  Cu1  1  0.50000000  0.00000000  0.50000000  1.0
  Cu2+  Cu1  1  0.50000000  0.50000000  0.00000000  1.0
  Pb2+  Pb1  1  0.50000000  0.00000000  0.00000000  1.0
  Pb2+  Pb1  1  0.00000000  0.50000000  0.00000000  1.0
  Pb2+  Pb1  1  0.00000000  0.00000000  0.50000000  1.0
  Pb2+  Pb1  1  0.50000000  0.50000000  0.50000000  1.0
  N3+  N1  1  0.19727000  0.00000000  1.00000000  1.0
  N3+  N1  1  0.00000000  0.19727000  0.00000000  1.0
  N3+  N1  1  0.00000000  0.00000000  0.80273000  1.0
  N3+  N1  1  0.80273000  0.00000000  0.00000000  1.0
  N3+  N1  1  0.00000000  0.80273000  0.00000000  1.0
  N3+  N1  1  0.00000000  0.00000000  0.19727000  1.0
  N3+  N1  1  0.19727000  0.50000000  0.50000000  1.0
  N3+  N1  1  0.69727000  0.00000000  0.50000000  1.0
  N3+  N1  1  0.69727000  0.50000000  0.00000000  1.0
  N3+  N1  1  0.00000000  0.69727000  0.50000000  1.0
  N3+  N1  1  0.50000000  0.19727000  0.50000000  1.0
  N3+  N1  1  0.50000000  0.69727000  0.00000000  1.0
  N3+  N1  1  0.00000000  0.50000000  0.30273000  1.0
  N3+  N1  1  0.50000000  0.00000000  0.30273000  1.0
  N3+  N1  1  0.50000000  0.50000000  0.80273000  1.0
  N3+  N1  1  0.80273000  0.50000000  0.50000000  1.0
  N3+  N1  1  0.30273000  0.00000000  0.50000000  1.0
  N3+  N1  1  0.30273000  0.50000000  0.00000000  1.0
  N3+  N1  1  0.00000000  0.30273000  0.50000000  1.0
  N3+  N1  1  0.50000000  0.80273000  0.50000000  1.0
  N3+  N1  1  0.50000000  0.30273000  1.00000000  1.0
  N3+  N1  1  0.00000000  0.50000000  0.69727000  1.0
  N3+  N1  1  0.50000000  0.00000000  0.69727000  1.0
  N3+  N1  1  0.50000000  0.50000000  0.19727000  1.0
  O2-  O1  1  0.25861000  0.09922000  0.00000000  1.0
  O2-  O1  1  0.00000000  0.25861000  0.90078000  1.0
  O2-  O1  1  0.09922000  0.00000000  0.74139000  1.0
  O2-  O1  1  0.74139000  0.90078000  0.00000000  1.0
  O2-  O1  1  0.00000000  0.74139000  0.09922000  1.0
  O2-  O1  1  0.90078000  0.00000000  0.25861000  1.0
  O2-  O1  1  0.25861000  0.90078000  0.00000000  1.0
  O2-  O1  1  0.09922000  0.00000000  0.25861000  1.0
  O2-  O1  1  0.74139000  0.09922000  0.00000000  1.0
  O2-  O1  1  0.90078000  0.00000000  0.74139000  1.0
  O2-  O1  1  0.00000000  0.25861000  0.09922000  1.0
  O2-  O1  1  0.00000000  0.74139000  0.90078000  1.0
  O2-  O1  1  0.25861000  0.59922000  0.50000000  1.0
  O2-  O1  1  0.75861000  0.09922000  0.50000000  1.0
  O2-  O1  1  0.75861000  0.59922000  0.00000000  1.0
  O2-  O1  1  0.00000000  0.75861000  0.40078000  1.0
  O2-  O1  1  0.50000000  0.25861000  0.40078000  1.0
  O2-  O1  1  0.50000000  0.75861000  0.90078000  1.0
  O2-  O1  1  0.09922000  0.50000000  0.24139000  1.0
  O2-  O1  1  0.59922000  0.00000000  0.24139000  1.0
  O2-  O1  1  0.59922000  0.50000000  0.74139000  1.0
  O2-  O1  1  0.74139000  0.40078000  0.50000000  1.0
  O2-  O1  1  0.24139000  0.90078000  0.50000000  1.0
  O2-  O1  1  0.24139000  0.40078000  1.00000000  1.0
  O2-  O1  1  0.00000000  0.24139000  0.59922000  1.0
  O2-  O1  1  0.50000000  0.74139000  0.59922000  1.0
  O2-  O1  1  0.50000000  0.24139000  0.09922000  1.0
  O2-  O1  1  0.90078000  0.50000000  0.75861000  1.0
  O2-  O1  1  0.40078000  0.00000000  0.75861000  1.0
  O2-  O1  1  0.40078000  0.50000000  0.25861000  1.0
  O2-  O1  1  0.25861000  0.40078000  0.50000000  1.0
  O2-  O1  1  0.75861000  0.90078000  0.50000000  1.0
  O2-  O1  1  0.75861000  0.40078000  0.00000000  1.0
  O2-  O1  1  0.09922000  0.50000000  0.75861000  1.0
  O2-  O1  1  0.59922000  0.00000000  0.75861000  1.0
  O2-  O1  1  0.59922000  0.50000000  0.25861000  1.0
  O2-  O1  1  0.74139000  0.59922000  0.50000000  1.0
  O2-  O1  1  0.24139000  0.09922000  0.50000000  1.0
  O2-  O1  1  0.24139000  0.59922000  0.00000000  1.0
  O2-  O1  1  0.90078000  0.50000000  0.24139000  1.0
  O2-  O1  1  0.40078000  0.00000000  0.24139000  1.0
  O2-  O1  1  0.40078000  0.50000000  0.74139000  1.0
  O2-  O1  1  0.00000000  0.75861000  0.59922000  1.0
  O2-  O1  1  0.50000000  0.25861000  0.59922000  1.0
  O2-  O1  1  0.50000000  0.75861000  0.09922000  1.0
  O2-  O1  1  0.00000000  0.24139000  0.40078000  1.0
  O2-  O1  1  0.50000000  0.74139000  0.40078000  1.0
  O2-  O1  1  0.50000000  0.24139000  0.90078000  1.0
