# generated using pymatgen
data_LiNd(PO3)4
_symmetry_space_group_name_H-M   'P 1'
_cell_length_a   9.84400000
_cell_length_b   7.00800000
_cell_length_c   13.25000000
_cell_angle_alpha   90.00000000
_cell_angle_beta   90.10000000
_cell_angle_gamma   90.00000000
_symmetry_Int_Tables_number   1
_chemical_formula_structural   LiNd(PO3)4
_chemical_formula_sum   'Li4 Nd4 P16 O48'
_cell_volume   914.07307179
_cell_formula_units_Z   4
loop_
 _symmetry_equiv_pos_site_id
 _symmetry_equiv_pos_as_xyz
  1  'x, y, z'
loop_
 _atom_type_symbol
 _atom_type_oxidation_number
  Li+  1.0
  Nd3+  3.0
  P5+  5.0
  O2-  -2.0
loop_
 _atom_site_type_symbol
 _atom_site_label
 _atom_site_symmetry_multiplicity
 _atom_site_fract_x
 _atom_site_fract_y
 _atom_site_fract_z
 _atom_site_occupancy
  Li+  Li1  1  0.50000000  0.05360000  0.25000000  1.0
  Li+  Li1  1  0.50000000  0.94640000  0.75000000  1.0
  Li+  Li1  1  0.00000000  0.55360000  0.75000000  1.0
  Li+  Li1  1  0.00000000  0.44640000  0.25000000  1.0
  Nd3+  Nd1  1  0.50000000  0.55010000  0.25000000  1.0
  Nd3+  Nd1  1  0.50000000  0.44990000  0.75000000  1.0
  Nd3+  Nd1  1  1.00000000  0.05010000  0.75000000  1.0
  Nd3+  Nd1  1  1.00000000  0.94990000  0.25000000  1.0
  P5+  P1  1  0.77530000  0.30700000  0.11110000  1.0
  P5+  P1  1  0.77530000  0.69300000  0.61110000  1.0
  P5+  P1  1  0.22470000  0.69300000  0.88890000  1.0
  P5+  P1  1  0.22470000  0.30700000  0.38890000  1.0
  P5+  P1  1  0.27530000  0.80700000  0.61110000  1.0
  P5+  P1  1  0.27530000  0.19300000  0.11110000  1.0
  P5+  P1  1  0.72470000  0.19300000  0.38890000  1.0
  P5+  P1  1  0.72470000  0.80700000  0.88890000  1.0
  P5+  P2  1  0.69790000  0.90810000  0.10100000  1.0
  P5+  P2  1  0.69790000  0.09190000  0.60100000  1.0
  P5+  P2  1  0.30210000  0.09190000  0.89900000  1.0
  P5+  P2  1  0.30210000  0.90810000  0.39900000  1.0
  P5+  P2  1  0.19790000  0.40810000  0.60100000  1.0
  P5+  P2  1  0.19790000  0.59190000  0.10100000  1.0
  P5+  P2  1  0.80210000  0.59190000  0.39900000  1.0
  P5+  P2  1  0.80210000  0.40810000  0.89900000  1.0
  O2-  O1  1  0.88070000  0.25510000  0.18470000  1.0
  O2-  O1  1  0.88070000  0.74490000  0.68470000  1.0
  O2-  O1  1  0.11930000  0.74490000  0.81530000  1.0
  O2-  O1  1  0.11930000  0.25510000  0.31530000  1.0
  O2-  O1  1  0.38070000  0.75510000  0.68470000  1.0
  O2-  O1  1  0.38070000  0.24490000  0.18470000  1.0
  O2-  O1  1  0.61930000  0.24490000  0.31530000  1.0
  O2-  O1  1  0.61930000  0.75510000  0.81530000  1.0
  O2-  O2  1  0.68450000  0.46890000  0.13490000  1.0
  O2-  O2  1  0.68450000  0.53110000  0.63490000  1.0
  O2-  O2  1  0.31550000  0.53110000  0.86510000  1.0
  O2-  O2  1  0.31550000  0.46890000  0.36510000  1.0
  O2-  O2  1  0.18450000  0.96890000  0.63490000  1.0
  O2-  O2  1  0.18450000  0.03110000  0.13490000  1.0
  O2-  O2  1  0.81550000  0.03110000  0.36510000  1.0
  O2-  O2  1  0.81550000  0.96890000  0.86510000  1.0
  O2-  O3  1  0.84460000  0.86420000  0.11940000  1.0
  O2-  O3  1  0.84460000  0.13580000  0.61940000  1.0
  O2-  O3  1  0.15540000  0.13580000  0.88060000  1.0
  O2-  O3  1  0.15540000  0.86420000  0.38060000  1.0
  O2-  O3  1  0.34460000  0.36420000  0.61940000  1.0
  O2-  O3  1  0.34460000  0.63580000  0.11940000  1.0
  O2-  O3  1  0.65540000  0.63580000  0.38060000  1.0
  O2-  O3  1  0.65540000  0.36420000  0.88060000  1.0
  O2-  O4  1  0.59280000  0.84900000  0.17620000  1.0
  O2-  O4  1  0.59280000  0.15100000  0.67620000  1.0
  O2-  O4  1  0.40720000  0.15100000  0.82380000  1.0
  O2-  O4  1  0.40720000  0.84900000  0.32380000  1.0
  O2-  O4  1  0.09280000  0.34900000  0.67620000  1.0
  O2-  O4  1  0.09280000  0.65100000  0.17620000  1.0
  O2-  O4  1  0.90720000  0.65100000  0.32380000  1.0
  O2-  O4  1  0.90720000  0.34900000  0.82380000  1.0
  O2-  O5  1  0.85120000  0.33640000  0.00630000  1.0
  O2-  O5  1  0.85120000  0.66360000  0.50630000  1.0
  O2-  O5  1  0.14880000  0.66360000  0.99370000  1.0
  O2-  O5  1  0.14880000  0.33640000  0.49370000  1.0
  O2-  O5  1  0.35120000  0.83640000  0.50630000  1.0
  O2-  O5  1  0.35120000  0.16360000  0.00630000  1.0
  O2-  O5  1  0.64880000  0.16360000  0.49370000  1.0
  O2-  O5  1  0.64880000  0.83640000  0.99370000  1.0
  O2-  O6  1  0.67690000  0.13210000  0.09050000  1.0
  O2-  O6  1  0.67690000  0.86790000  0.59050000  1.0
  O2-  O6  1  0.32310000  0.86790000  0.90950000  1.0
  O2-  O6  1  0.32310000  0.13210000  0.40950000  1.0
  O2-  O6  1  0.17690000  0.63210000  0.59050000  1.0
  O2-  O6  1  0.17690000  0.36790000  0.09050000  1.0
  O2-  O6  1  0.82310000  0.36790000  0.40950000  1.0
  O2-  O6  1  0.82310000  0.63210000  0.90950000  1.0
