# generated using pymatgen
data_Cs2LiGaF12
_symmetry_space_group_name_H-M   'P 1'
_cell_length_a   6.24900000
_cell_length_b   6.24900000
_cell_length_c   5.08600000
_cell_angle_alpha   90.00000000
_cell_angle_beta   90.00000000
_cell_angle_gamma   120.00000000
_symmetry_Int_Tables_number   1
_chemical_formula_structural   Cs2LiGaF12
_chemical_formula_sum   'Cs2 Li1 Ga1 F12'
_cell_volume   171.99983761
_cell_formula_units_Z   1
loop_
 _symmetry_equiv_pos_site_id
 _symmetry_equiv_pos_as_xyz
  1  'x, y, z'
loop_
 _atom_type_symbol
 _atom_type_oxidation_number
  Cs+  1.0
  Li+  1.0
  Ga3+  3.0
  F-  -1.0
loop_
 _atom_site_type_symbol
 _atom_site_label
 _atom_site_symmetry_multiplicity
 _atom_site_fract_x
 _atom_site_fract_y
 _atom_site_fract_z
 _atom_site_occupancy
  Cs+  Cs1  1  0.66666667  0.33333333  0.73010000  1.0
  Cs+  Cs1  1  0.33333333  0.66666667  0.26990000  1.0
  Li+  Li1  1  0.00000000  0.00000000  0.50000000  1.0
  Ga3+  Ga1  1  0.00000000  0.00000000  0.00000000  1.0
  F-  F1  1  0.86080000  0.72200000  0.23820000  1.0
  F-  F1  1  0.86120000  0.13920000  0.23820000  1.0
  F-  F1  1  0.27800000  0.13880000  0.23820000  1.0
  F-  F1  1  0.86080000  0.13880000  0.23820000  1.0
  F-  F1  1  0.27800000  0.13920000  0.23820000  1.0
  F-  F1  1  0.86120000  0.72200000  0.23820000  1.0
  F-  F1  1  0.13920000  0.27800000  0.76180000  1.0
  F-  F1  1  0.13880000  0.86080000  0.76180000  1.0
  F-  F1  1  0.72200000  0.86120000  0.76180000  1.0
  F-  F1  1  0.13920000  0.86120000  0.76180000  1.0
  F-  F1  1  0.72200000  0.86080000  0.76180000  1.0
  F-  F1  1  0.13880000  0.27800000  0.76180000  1.0
