# generated using pymatgen
data_Cs2NaCrF6
_symmetry_space_group_name_H-M   'P 1'
_cell_length_a   6.24300000
_cell_length_b   6.24300000
_cell_length_c   30.00000000
_cell_angle_alpha   90.00000000
_cell_angle_beta   90.00000000
_cell_angle_gamma   120.00000000
_symmetry_Int_Tables_number   1
_chemical_formula_structural   Cs2NaCrF6
_chemical_formula_sum   'Cs12 Na6 Cr6 F36'
_cell_volume   1012.60147643
_cell_formula_units_Z   6
loop_
 _symmetry_equiv_pos_site_id
 _symmetry_equiv_pos_as_xyz
  1  'x, y, z'
loop_
 _atom_type_symbol
 _atom_type_oxidation_number
  Cs+  1.0
  Na+  1.0
  Cr3+  3.0
  F-  -1.0
loop_
 _atom_site_type_symbol
 _atom_site_label
 _atom_site_symmetry_multiplicity
 _atom_site_fract_x
 _atom_site_fract_y
 _atom_site_fract_z
 _atom_site_occupancy
  Cs+  Cs1  1  0.00000000  0.00000000  0.87200000  1.0
  Cs+  Cs1  1  0.00000000  0.00000000  0.12800000  1.0
  Cs+  Cs1  1  0.66666667  0.33333333  0.20533333  1.0
  Cs+  Cs1  1  0.33333333  0.66666667  0.53866667  1.0
  Cs+  Cs1  1  0.66666667  0.33333333  0.46133333  1.0
  Cs+  Cs1  1  0.33333333  0.66666667  0.79466667  1.0
  Cs+  Cs2  1  0.00000000  0.00000000  0.71884000  1.0
  Cs+  Cs2  1  0.00000000  0.00000000  0.28116000  1.0
  Cs+  Cs2  1  0.66666667  0.33333333  0.05217333  1.0
  Cs+  Cs2  1  0.33333333  0.66666667  0.38550667  1.0
  Cs+  Cs2  1  0.66666667  0.33333333  0.61449333  1.0
  Cs+  Cs2  1  0.33333333  0.66666667  0.94782667  1.0
  Na+  Na1  1  0.00000000  0.00000000  0.59770000  1.0
  Na+  Na1  1  0.00000000  0.00000000  0.40230000  1.0
  Na+  Na1  1  0.66666667  0.33333333  0.93103333  1.0
  Na+  Na1  1  0.33333333  0.66666667  0.26436667  1.0
  Na+  Na1  1  0.66666667  0.33333333  0.73563333  1.0
  Na+  Na1  1  0.33333333  0.66666667  0.06896667  1.0
  Cr3+  Cr1  1  0.00000000  0.00000000  0.00000000  1.0
  Cr3+  Cr1  1  0.66666667  0.33333333  0.33333333  1.0
  Cr3+  Cr1  1  0.33333333  0.66666667  0.66666667  1.0
  Cr3+  Cr2  1  0.00000000  0.00000000  0.50000000  1.0
  Cr3+  Cr2  1  0.66666667  0.33333333  0.83333333  1.0
  Cr3+  Cr2  1  0.33333333  0.66666667  0.16666667  1.0
  F-  F1  1  0.28262000  0.14131000  0.53797000  1.0
  F-  F1  1  0.85869000  0.71738000  0.53797000  1.0
  F-  F1  1  0.85869000  0.14131000  0.53797000  1.0
  F-  F1  1  0.71738000  0.85869000  0.46203000  1.0
  F-  F1  1  0.14131000  0.28262000  0.46203000  1.0
  F-  F1  1  0.14131000  0.85869000  0.46203000  1.0
  F-  F1  1  0.94928667  0.47464333  0.87130333  1.0
  F-  F1  1  0.61595333  0.80797667  0.20463667  1.0
  F-  F1  1  0.52535667  0.05071333  0.87130333  1.0
  F-  F1  1  0.19202333  0.38404667  0.20463667  1.0
  F-  F1  1  0.52535667  0.47464333  0.87130333  1.0
  F-  F1  1  0.19202333  0.80797667  0.20463667  1.0
  F-  F1  1  0.38404667  0.19202333  0.79536333  1.0
  F-  F1  1  0.05071333  0.52535667  0.12869667  1.0
  F-  F1  1  0.80797667  0.61595333  0.79536333  1.0
  F-  F1  1  0.47464333  0.94928667  0.12869667  1.0
  F-  F1  1  0.80797667  0.19202333  0.79536333  1.0
  F-  F1  1  0.47464333  0.52535667  0.12869667  1.0
  F-  F2  1  0.37654000  0.18827000  0.36901000  1.0
  F-  F2  1  0.81173000  0.62346000  0.36901000  1.0
  F-  F2  1  0.81173000  0.18827000  0.36901000  1.0
  F-  F2  1  0.62346000  0.81173000  0.63099000  1.0
  F-  F2  1  0.18827000  0.37654000  0.63099000  1.0
  F-  F2  1  0.18827000  0.81173000  0.63099000  1.0
  F-  F2  1  0.04320667  0.52160333  0.70234333  1.0
  F-  F2  1  0.70987333  0.85493667  0.03567667  1.0
  F-  F2  1  0.47839667  0.95679333  0.70234333  1.0
  F-  F2  1  0.14506333  0.29012667  0.03567667  1.0
  F-  F2  1  0.47839667  0.52160333  0.70234333  1.0
  F-  F2  1  0.14506333  0.85493667  0.03567667  1.0
  F-  F2  1  0.29012667  0.14506333  0.96432333  1.0
  F-  F2  1  0.95679333  0.47839667  0.29765667  1.0
  F-  F2  1  0.85493667  0.70987333  0.96432333  1.0
  F-  F2  1  0.52160333  0.04320667  0.29765667  1.0
  F-  F2  1  0.85493667  0.14506333  0.96432333  1.0
  F-  F2  1  0.52160333  0.47839667  0.29765667  1.0
