# generated using pymatgen
data_KGa2Cl7
_symmetry_space_group_name_H-M   'P 1'
_cell_length_a   11.82160000
_cell_length_b   8.94400000
_cell_length_c   10.70800000
_cell_angle_alpha   90.00000000
_cell_angle_beta   90.00000000
_cell_angle_gamma   90.00000000
_symmetry_Int_Tables_number   1
_chemical_formula_structural   KGa2Cl7
_chemical_formula_sum   'K4 Ga8 Cl28'
_cell_volume   1132.18243640
_cell_formula_units_Z   4
loop_
 _symmetry_equiv_pos_site_id
 _symmetry_equiv_pos_as_xyz
  1  'x, y, z'
loop_
 _atom_type_symbol
 _atom_type_oxidation_number
  K+  1.0
  Ga3+  3.0
  Cl-  -1.0
loop_
 _atom_site_type_symbol
 _atom_site_label
 _atom_site_symmetry_multiplicity
 _atom_site_fract_x
 _atom_site_fract_y
 _atom_site_fract_z
 _atom_site_occupancy
  K+  K1  1  0.61680000  0.12990000  0.88780000  1.0
  K+  K1  1  0.38320000  0.87010000  0.38780000  1.0
  K+  K1  1  0.88320000  0.62990000  0.38780000  1.0
  K+  K1  1  0.11680000  0.37010000  0.88780000  1.0
  Ga3+  Ga1  1  0.88740000  0.11860000  0.24430000  1.0
  Ga3+  Ga1  1  0.11260000  0.88140000  0.74430000  1.0
  Ga3+  Ga1  1  0.61260000  0.61860000  0.74430000  1.0
  Ga3+  Ga1  1  0.38740000  0.38140000  0.24430000  1.0
  Ga3+  Ga2  1  0.67500000  0.06830000  0.50000000  1.0
  Ga3+  Ga2  1  0.32500000  0.93170000  0.00000000  1.0
  Ga3+  Ga2  1  0.82500000  0.56830000  0.00000000  1.0
  Ga3+  Ga2  1  0.17500000  0.43170000  0.50000000  1.0
  Cl-  Cl1  1  0.75610000  0.24000000  0.37060000  1.0
  Cl-  Cl1  1  0.24390000  0.76000000  0.87060000  1.0
  Cl-  Cl1  1  0.74390000  0.74000000  0.87060000  1.0
  Cl-  Cl1  1  0.25610000  0.26000000  0.37060000  1.0
  Cl-  Cl2  1  0.78610000  0.04890000  0.65850000  1.0
  Cl-  Cl2  1  0.21390000  0.95110000  0.15850000  1.0
  Cl-  Cl2  1  0.71390000  0.54890000  0.15850000  1.0
  Cl-  Cl2  1  0.28610000  0.45110000  0.65850000  1.0
  Cl-  Cl3  1  0.79290000  0.01580000  0.09970000  1.0
  Cl-  Cl3  1  0.20710000  0.98420000  0.59970000  1.0
  Cl-  Cl3  1  0.70710000  0.51580000  0.59970000  1.0
  Cl-  Cl3  1  0.29290000  0.48420000  0.09970000  1.0
  Cl-  Cl4  1  0.51440000  0.16210000  0.55240000  1.0
  Cl-  Cl4  1  0.48560000  0.83790000  0.05240000  1.0
  Cl-  Cl4  1  0.98560000  0.66210000  0.05240000  1.0
  Cl-  Cl4  1  0.01440000  0.33790000  0.55240000  1.0
  Cl-  Cl5  1  0.97080000  0.96370000  0.36720000  1.0
  Cl-  Cl5  1  0.02920000  0.03630000  0.86720000  1.0
  Cl-  Cl5  1  0.52920000  0.46370000  0.86720000  1.0
  Cl-  Cl5  1  0.47080000  0.53630000  0.36720000  1.0
  Cl-  Cl6  1  0.65820000  0.87020000  0.39060000  1.0
  Cl-  Cl6  1  0.34180000  0.12980000  0.89060000  1.0
  Cl-  Cl6  1  0.84180000  0.37020000  0.89060000  1.0
  Cl-  Cl6  1  0.15820000  0.62980000  0.39060000  1.0
  Cl-  Cl7  1  0.99170000  0.30290000  0.19080000  1.0
  Cl-  Cl7  1  0.00830000  0.69710000  0.69080000  1.0
  Cl-  Cl7  1  0.50830000  0.80290000  0.69080000  1.0
  Cl-  Cl7  1  0.49170000  0.19710000  0.19080000  1.0
